<configuration>
    <input>
        <net-file value="scenario1.net.xml"/>
        <route-files value="scenario1.rou.xml"/>
    </input>
    <time>
        <begin value="0"/>
        <end value="10000"/>
    </time>
</configuration>