<?xml version="1.0" encoding="UTF-8"?>

<!-- generated on Mon May 18 17:42:21 2015 by SUMO netconvert Version dev-SVN-r17994
<?xml version="1.0" encoding="UTF-8"?>

<configuration xmlns:xsi="http://www.w3.org/2001/XMLSchema-instance" xsi:noNamespaceSchemaLocation="http://sumo.dlr.de/xsd/netconvertConfiguration.xsd">

    <input>
        <node-files value="scenario1.nod.xml"/>
        <edge-files value="scenario1.edg.xml"/>
    </input>

    <output>
        <output-file value="scenario1.net.xml"/>
    </output>

</configuration>
-->

<net version="0.13" xmlns:xsi="http://www.w3.org/2001/XMLSchema-instance" xsi:noNamespaceSchemaLocation="http://sumo.dlr.de/xsd/net_file.xsd">

    <location netOffset="250.00,250.00" convBoundary="0.00,0.00,500.00,500.00" origBoundary="-250.00,-250.00,250.00,250.00" projParameter="!"/>

    <edge id=":1_0" function="internal">
        <lane id=":1_0_0" index="0" speed="13.90" length="7.90" shape="-1.65,3.25 -1.34,1.11 -0.43,-0.42 1.11,-1.34 3.25,-1.65"/>
    </edge>
    <edge id=":1_1" function="internal">
        <lane id=":1_1_0" index="0" speed="13.90" length="2.80" shape="-1.65,3.25 -0.83,2.01 -0.00,1.60 0.35,1.77"/>
    </edge>
    <edge id=":1_4" function="internal">
        <lane id=":1_4_0" index="0" speed="13.90" length="2.02" shape="0.35,1.77 0.82,2.01 1.65,3.25"/>
    </edge>
    <edge id=":1_2" function="internal">
        <lane id=":1_2_0" index="0" speed="13.90" length="2.58" shape="3.25,1.65 2.55,1.75 2.05,2.05 1.75,2.55 1.65,3.25"/>
    </edge>
    <edge id=":1_3" function="internal">
        <lane id=":1_3_0" index="0" speed="13.90" length="2.20" shape="3.25,1.65 2.01,0.83 1.69,0.19"/>
    </edge>
    <edge id=":1_5" function="internal">
        <lane id=":1_5_0" index="0" speed="13.90" length="2.62" shape="1.69,0.19 1.60,0.00 2.01,-0.82 3.25,-1.65"/>
    </edge>
    <edge id=":2_0" function="internal">
        <lane id=":2_0_0" index="0" speed="13.90" length="2.58" shape="498.35,3.25 498.25,2.55 497.95,2.05 497.45,1.75 496.75,1.65"/>
    </edge>
    <edge id=":2_1" function="internal">
        <lane id=":2_1_0" index="0" speed="13.90" length="2.20" shape="498.35,3.25 499.18,2.01 499.81,1.69"/>
    </edge>
    <edge id=":2_4" function="internal">
        <lane id=":2_4_0" index="0" speed="13.90" length="2.62" shape="499.81,1.69 500.00,1.60 500.82,2.01 501.65,3.25"/>
    </edge>
    <edge id=":2_2" function="internal">
        <lane id=":2_2_0" index="0" speed="13.90" length="7.90" shape="496.75,-1.65 498.89,-1.34 500.42,-0.43 501.34,1.11 501.65,3.25"/>
    </edge>
    <edge id=":2_3" function="internal">
        <lane id=":2_3_0" index="0" speed="13.90" length="2.80" shape="496.75,-1.65 497.99,-0.83 498.40,-0.00 498.23,0.35"/>
    </edge>
    <edge id=":2_5" function="internal">
        <lane id=":2_5_0" index="0" speed="13.90" length="2.02" shape="498.23,0.35 497.99,0.82 496.75,1.65"/>
    </edge>
    <edge id=":3_0" function="internal">
        <lane id=":3_0_0" index="0" speed="13.90" length="7.90" shape="501.65,496.75 501.34,498.89 500.42,500.42 498.89,501.34 496.75,501.65"/>
    </edge>
    <edge id=":3_1" function="internal">
        <lane id=":3_1_0" index="0" speed="13.90" length="2.80" shape="501.65,496.75 500.82,497.99 500.00,498.40 499.65,498.23"/>
    </edge>
    <edge id=":3_4" function="internal">
        <lane id=":3_4_0" index="0" speed="13.90" length="2.02" shape="499.65,498.23 499.18,497.99 498.35,496.75"/>
    </edge>
    <edge id=":3_2" function="internal">
        <lane id=":3_2_0" index="0" speed="13.90" length="2.58" shape="496.75,498.35 497.45,498.25 497.95,497.95 498.25,497.45 498.35,496.75"/>
    </edge>
    <edge id=":3_3" function="internal">
        <lane id=":3_3_0" index="0" speed="13.90" length="2.20" shape="496.75,498.35 497.99,499.18 498.31,499.81"/>
    </edge>
    <edge id=":3_5" function="internal">
        <lane id=":3_5_0" index="0" speed="13.90" length="2.62" shape="498.31,499.81 498.40,500.00 497.99,500.82 496.75,501.65"/>
    </edge>
    <edge id=":4_0" function="internal">
        <lane id=":4_0_0" index="0" speed="13.90" length="7.90" shape="3.25,501.65 1.11,501.34 -0.42,500.42 -1.34,498.89 -1.65,496.75"/>
    </edge>
    <edge id=":4_1" function="internal">
        <lane id=":4_1_0" index="0" speed="13.90" length="2.80" shape="3.25,501.65 2.01,500.82 1.60,500.00 1.77,499.65"/>
    </edge>
    <edge id=":4_4" function="internal">
        <lane id=":4_4_0" index="0" speed="13.90" length="2.02" shape="1.77,499.65 2.01,499.18 3.25,498.35"/>
    </edge>
    <edge id=":4_2" function="internal">
        <lane id=":4_2_0" index="0" speed="13.90" length="2.58" shape="1.65,496.75 1.75,497.45 2.05,497.95 2.55,498.25 3.25,498.35"/>
    </edge>
    <edge id=":4_3" function="internal">
        <lane id=":4_3_0" index="0" speed="13.90" length="2.20" shape="1.65,496.75 0.83,497.99 0.19,498.31"/>
    </edge>
    <edge id=":4_5" function="internal">
        <lane id=":4_5_0" index="0" speed="13.90" length="2.62" shape="0.19,498.31 0.00,498.40 -0.82,497.99 -1.65,496.75"/>
    </edge>

    <edge id="1to2" from="1" to="2" priority="-1">
        <lane id="1to2_0" index="0" speed="13.90" length="493.50" shape="3.25,-1.65 496.75,-1.65"/>
    </edge>
    <edge id="1to4" from="1" to="4" priority="-1">
        <lane id="1to4_0" index="0" speed="13.90" length="493.50" shape="1.65,3.25 1.65,496.75"/>
    </edge>
    <edge id="2to1" from="2" to="1" priority="-1">
        <lane id="2to1_0" index="0" speed="13.90" length="493.50" shape="496.75,1.65 3.25,1.65"/>
    </edge>
    <edge id="2to3" from="2" to="3" priority="-1">
        <lane id="2to3_0" index="0" speed="13.90" length="493.50" shape="501.65,3.25 501.65,496.75"/>
    </edge>
    <edge id="3to2" from="3" to="2" priority="-1">
        <lane id="3to2_0" index="0" speed="13.90" length="493.50" shape="498.35,496.75 498.35,3.25"/>
    </edge>
    <edge id="3to4" from="3" to="4" priority="-1">
        <lane id="3to4_0" index="0" speed="13.90" length="493.50" shape="496.75,501.65 3.25,501.65"/>
    </edge>
    <edge id="4to1" from="4" to="1" priority="-1">
        <lane id="4to1_0" index="0" speed="13.90" length="493.50" shape="-1.65,496.75 -1.65,3.25"/>
    </edge>
    <edge id="4to3" from="4" to="3" priority="-1">
        <lane id="4to3_0" index="0" speed="13.90" length="493.50" shape="3.25,498.35 496.75,498.35"/>
    </edge>

    <junction id="1" type="priority" x="0.00" y="0.00" incLanes="4to1_0 2to1_0" intLanes=":1_0_0 :1_4_0 :1_2_0 :1_5_0" shape="-3.25,3.25 3.25,3.25 3.25,-3.25">
        <request index="0" response="0000" foes="1000" cont="0"/>
        <request index="1" response="0100" foes="0100" cont="1"/>
        <request index="2" response="0000" foes="0010" cont="0"/>
        <request index="3" response="0001" foes="0001" cont="1"/>
    </junction>
    <junction id="2" type="priority" x="500.00" y="0.00" incLanes="3to2_0 1to2_0" intLanes=":2_0_0 :2_4_0 :2_2_0 :2_5_0" shape="496.75,3.25 503.25,3.25 496.75,-3.25 496.75,3.25">
        <request index="0" response="0000" foes="1000" cont="0"/>
        <request index="1" response="0100" foes="0100" cont="1"/>
        <request index="2" response="0000" foes="0010" cont="0"/>
        <request index="3" response="0001" foes="0001" cont="1"/>
    </junction>
    <junction id="3" type="priority" x="500.00" y="500.00" incLanes="2to3_0 4to3_0" intLanes=":3_0_0 :3_4_0 :3_2_0 :3_5_0" shape="503.25,496.75 496.75,496.75 496.75,503.25">
        <request index="0" response="0000" foes="1000" cont="0"/>
        <request index="1" response="0100" foes="0100" cont="1"/>
        <request index="2" response="0000" foes="0010" cont="0"/>
        <request index="3" response="0001" foes="0001" cont="1"/>
    </junction>
    <junction id="4" type="priority" x="0.00" y="500.00" incLanes="3to4_0 1to4_0" intLanes=":4_0_0 :4_4_0 :4_2_0 :4_5_0" shape="3.25,503.25 3.25,496.75 -3.25,496.75">
        <request index="0" response="0000" foes="1000" cont="0"/>
        <request index="1" response="0100" foes="0100" cont="1"/>
        <request index="2" response="0000" foes="0010" cont="0"/>
        <request index="3" response="0001" foes="0001" cont="1"/>
    </junction>

    <junction id=":1_4_0" type="internal" x="0.35" y="1.77" incLanes=":1_1_0 2to1_0" intLanes=":1_2_0"/>
    <junction id=":1_5_0" type="internal" x="1.69" y="0.19" incLanes=":1_3_0 4to1_0" intLanes=":1_0_0"/>
    <junction id=":2_4_0" type="internal" x="499.81" y="1.69" incLanes=":2_1_0 1to2_0" intLanes=":2_2_0"/>
    <junction id=":2_5_0" type="internal" x="498.23" y="0.35" incLanes=":2_3_0 3to2_0" intLanes=":2_0_0"/>
    <junction id=":3_4_0" type="internal" x="499.65" y="498.23" incLanes=":3_1_0 4to3_0" intLanes=":3_2_0"/>
    <junction id=":3_5_0" type="internal" x="498.31" y="499.81" incLanes=":3_3_0 2to3_0" intLanes=":3_0_0"/>
    <junction id=":4_4_0" type="internal" x="1.77" y="499.65" incLanes=":4_1_0 1to4_0" intLanes=":4_2_0"/>
    <junction id=":4_5_0" type="internal" x="0.19" y="498.31" incLanes=":4_3_0 3to4_0" intLanes=":4_0_0"/>

    <connection from="1to2" to="2to3" fromLane="0" toLane="0" via=":2_2_0" dir="l" state="M"/>
    <connection from="1to2" to="2to1" fromLane="0" toLane="0" via=":2_3_0" dir="t" state="m"/>
    <connection from="1to4" to="4to3" fromLane="0" toLane="0" via=":4_2_0" dir="r" state="M"/>
    <connection from="1to4" to="4to1" fromLane="0" toLane="0" via=":4_3_0" dir="t" state="m"/>
    <connection from="2to1" to="1to4" fromLane="0" toLane="0" via=":1_2_0" dir="r" state="M"/>
    <connection from="2to1" to="1to2" fromLane="0" toLane="0" via=":1_3_0" dir="t" state="m"/>
    <connection from="2to3" to="3to4" fromLane="0" toLane="0" via=":3_0_0" dir="l" state="M"/>
    <connection from="2to3" to="3to2" fromLane="0" toLane="0" via=":3_1_0" dir="t" state="m"/>
    <connection from="3to2" to="2to1" fromLane="0" toLane="0" via=":2_0_0" dir="r" state="M"/>
    <connection from="3to2" to="2to3" fromLane="0" toLane="0" via=":2_1_0" dir="t" state="m"/>
    <connection from="3to4" to="4to1" fromLane="0" toLane="0" via=":4_0_0" dir="l" state="M"/>
    <connection from="3to4" to="4to3" fromLane="0" toLane="0" via=":4_1_0" dir="t" state="m"/>
    <connection from="4to1" to="1to2" fromLane="0" toLane="0" via=":1_0_0" dir="l" state="M"/>
    <connection from="4to1" to="1to4" fromLane="0" toLane="0" via=":1_1_0" dir="t" state="m"/>
    <connection from="4to3" to="3to2" fromLane="0" toLane="0" via=":3_2_0" dir="r" state="M"/>
    <connection from="4to3" to="3to4" fromLane="0" toLane="0" via=":3_3_0" dir="t" state="m"/>

    <connection from=":1_0" to="1to2" fromLane="0" toLane="0" dir="s" state="M"/>
    <connection from=":1_1" to="1to4" fromLane="0" toLane="0" via=":1_4_0" dir="s" state="m"/>
    <connection from=":1_4" to="1to4" fromLane="0" toLane="0" dir="s" state="M"/>
    <connection from=":1_2" to="1to4" fromLane="0" toLane="0" dir="s" state="M"/>
    <connection from=":1_3" to="1to2" fromLane="0" toLane="0" via=":1_5_0" dir="s" state="m"/>
    <connection from=":1_5" to="1to2" fromLane="0" toLane="0" dir="s" state="M"/>
    <connection from=":2_0" to="2to1" fromLane="0" toLane="0" dir="s" state="M"/>
    <connection from=":2_1" to="2to3" fromLane="0" toLane="0" via=":2_4_0" dir="s" state="m"/>
    <connection from=":2_4" to="2to3" fromLane="0" toLane="0" dir="s" state="M"/>
    <connection from=":2_2" to="2to3" fromLane="0" toLane="0" dir="s" state="M"/>
    <connection from=":2_3" to="2to1" fromLane="0" toLane="0" via=":2_5_0" dir="s" state="m"/>
    <connection from=":2_5" to="2to1" fromLane="0" toLane="0" dir="s" state="M"/>
    <connection from=":3_0" to="3to4" fromLane="0" toLane="0" dir="s" state="M"/>
    <connection from=":3_1" to="3to2" fromLane="0" toLane="0" via=":3_4_0" dir="s" state="m"/>
    <connection from=":3_4" to="3to2" fromLane="0" toLane="0" dir="s" state="M"/>
    <connection from=":3_2" to="3to2" fromLane="0" toLane="0" dir="s" state="M"/>
    <connection from=":3_3" to="3to4" fromLane="0" toLane="0" via=":3_5_0" dir="s" state="m"/>
    <connection from=":3_5" to="3to4" fromLane="0" toLane="0" dir="s" state="M"/>
    <connection from=":4_0" to="4to1" fromLane="0" toLane="0" dir="s" state="M"/>
    <connection from=":4_1" to="4to3" fromLane="0" toLane="0" via=":4_4_0" dir="s" state="m"/>
    <connection from=":4_4" to="4to3" fromLane="0" toLane="0" dir="s" state="M"/>
    <connection from=":4_2" to="4to3" fromLane="0" toLane="0" dir="s" state="M"/>
    <connection from=":4_3" to="4to1" fromLane="0" toLane="0" via=":4_5_0" dir="s" state="m"/>
    <connection from=":4_5" to="4to1" fromLane="0" toLane="0" dir="s" state="M"/>

</net>
